*Heading
** Job name: Polymerizacion_1 Model name: Model-1
** Generated by: Abaqus/CAE 6.14-1
*Preprint, echo=NO, model=NO, history=NO, contact=NO
**
** PARTS
**
*Part, name=cell
*Node
*INCLUDE, input=4_p_initial_mesh.inp
*Orientation, name=Ori-1
1., 0., 0., 0., 1., 0.
3, 0.
** Section: cel_isotropic
*Solid Section, elset=Myosin, orientation=Ori-1, material=cell_isotropic
,
** Section: cel_isotropic
*Solid Section, elset=AdherentActin, orientation=Ori-1, material=cell_isotropic
,
** Section: cel_isotropic
*Solid Section, elset=all_iso, orientation=Ori-1, material=cell_isotropic
,
** Section: cel_ortotropo
*Solid Section, elset=FreeActin, orientation=Ori-1, material=cel_orthotropic
,
** Section: cel_ortotropo
*Solid Section, elset=GActinSource, orientation=Ori-1, material=cel_orthotropic
,
** Section: Nucleus
*Solid Section, elset=Nucleus, orientation=Ori-1, material=Nucleus
,
** Section: cel_isotropic
*Solid Section, elset=nonGActin, orientation=Ori-1, material=cell_isotropic
,
*End Part
**  
*Part, name=tube
*Node
      1,   5.98000002,         120.
      2,   5.98000002,   119.699997
      3,   5.98000002,   119.400002
      4,   5.98000002,   119.099998
      5,   5.98000002,   118.800003
      6,   5.98000002,        118.5
      7,   5.98000002,   118.199997
      8,   5.98000002,   117.900002
      9,   5.98000002,   117.599998
     10,   5.98000002,   117.300003
     11,   5.98000002,         117.
     12,   5.98000002,   116.699997
     13,   5.98000002,   116.400002
     14,   5.98000002,   116.099998
     15,   5.98000002,   115.800003
     16,   5.98000002,        115.5
     17,   5.98000002,   115.199997
     18,   5.98000002,   114.900002
     19,   5.98000002,   114.599998
     20,   5.98000002,   114.300003
** ... 381 like lines cut
*Element, type=RAX2
  1,   1,   2
  2,   2,   3
  3,   3,   4
  4,   4,   5
  5,   5,   6
  6,   6,   7
  7,   7,   8
  8,   8,   9
  9,   9,  10
 10,  10,  11
 11,  11,  12
 12,  12,  13
 13,  13,  14
 14,  14,  15
 15,  15,  16
 16,  16,  17
 17,  17,  18
 18,  18,  19
 19,  19,  20
 20,  20,  21
** ... 380 like lines cut
*Node
    402,   5.98000002,           0.,           0.
*Nset, nset=tube-RefPt_, internal
402, 
*Nset, nset=Master, generate
   1,  402,    1
*Elset, elset=Master, generate
   1,  400,    1
*Elset, elset=_Master_surface_SPOS, internal, generate
  1,  400,   1
*Surface, type=ELEMENT, name=Master_surface
_Master_surface_SPOS, SNEG
*Elset, elset=tube, generate
  1,  400,   1
*End Part
**  
**
** ASSEMBLY
**
*Assembly, name=Assembly
**  
*Instance, name=Cell-1, part=cell
*End Instance
**  
*Instance, name=tube, part=tube
*End Instance
**  
*Nset, nset=rp, instance=tube
 402,
*Rigid Body, ref node=tube.tube-RefPt_, elset=tube.tube
*End Assembly
** 
** MATERIALS
** 
*Material, name=cell_isotropic
*Elastic
 0.8, 0.38
*Expansion
0.3,
*Material, name=cel_orthotropic
*Elastic
 0.8, 0.38
*Expansion, type=ORTHO
0.,0.3,0.
*Material, name=Nucleus
*Elastic
8., 0.38
** 
** INTERACTION PROPERTIES
** 
*Surface Interaction, name=IntProp-1
1.,
*Friction, slip tolerance=0.005
 0.5,
** 
** BOUNDARY CONDITIONS
** 
** Name: encastre Type: Symmetry/Antisymmetry/Encastre
*Boundary
rp, ENCASTRE
** 
** INTERACTIONS
** 
** Interaction: Contacto
*Contact Pair, interaction=IntProp-1, type=SURFACE TO SURFACE
Cell-1.exterior, tube.Master_surface
** ----------------------------------------------------------------
** 
** STEP: Step-1
** 
*Step, name=Step-1, nlgeom=YES
*Static
0.1, 1., 1e-05, 1.
** 
** LOADS
** 
** Name: pressure   Type: Pressure
*Dsload
Cell-1.exterior, P, 0.0001
** 
** INTERACTIONS
** 
** Interaction: Contact
*Model Change, type=CONTACT PAIR, remove
Cell-1.exterior, tube.Master_surface
** 
** OUTPUT REQUESTS
** 
*Restart, write, frequency=0
** 
** FIELD OUTPUT: F-Output-1
** 
*Output, field
*Node Output
NT, U
*Element Output, directions=YES
E, LE, MISES, S
*Contact Output
CSTRESS, 
** 
** HISTORY OUTPUT: H-Output-1
** 
*Output, history, variable=PRESELECT
*End Step
** ----------------------------------------------------------------
** 
** STEP: Step-2
** 
*Step, name=Step-2, nlgeom=YES
*Static
0.1, 1., 1e-05, 1.
** 
** LOADS
** 
** Name: pressure   Type: Pressure
*Dsload, op=NEW
** 
** INTERACTIONS
** 
** Interaction: Contact
*Model Change, type=CONTACT PAIR, add
Cell-1.exterior, tube.Master_surface
** 
** OUTPUT REQUESTS
** 
*Restart, write, frequency=0
** 
** FIELD OUTPUT: F-Output-1
** 
*Output, field
*Node Output
NT, U
*Element Output, directions=YES
E, LE, MISES, S
*Contact Output
CSTRESS, 
** 
** HISTORY OUTPUT: H-Output-1
** 
*Output, history, variable=PRESELECT
*End Step
** ----------------------------------------------------------------
** 
** STEP: Step-3
** 
*Step, name=Step-3, nlgeom=YES
*Static
0.1, 1., 1e-05, 1.
** 
** PREDEFINED FIELDS
** 
** Name: Front   Type: Temperature
*Temperature
*INCLUDE, input=temp.inp
** Name: Adherent   Type: Temperature
*Temperature
Cell-1.AdherentActin, 0.75
** Name: Contraction_source   Type: Temperature
*Temperature
Cell-1.GActinRounded, -0.75
** Name: Contraction_gcero   Type: Temperature
*Temperature
Cell-1.nonGActin, -1.
** Name: Myosin   Type: Temperature
*Temperature
*INCLUDE, input=tempMyosin.inp
** 
** OUTPUT REQUESTS
** 
*Restart, write, frequency=0
** 
** FIELD OUTPUT: F-Output-1
** 
*Output, field, frequency=1
*Node Output
NT, U
*Element Output, directions=YES
E, MISES, S
*Contact Output
CSTRESS, 
*Output, history, frequency=99999
*NODE PRINT, nset=Cell-1.Contorno, frequency=999
COORD
*NODE PRINT, nset=Cell-1.ContornoNucleus, frequency=999
COORD
*NODE PRINT, nset=Cell-1.todo, frequency=999
COORD
** 
*End Step
